272
VMD BNNT 8,8                            
 B    5.537586    0.000000    0.000000
 B    5.537586    0.000000    2.512028
 B    5.116056    2.119151    1.256014
 B    3.915650    3.915670    0.000000
 B    3.915650    3.915670    2.512028
 B    2.119126    5.116066    1.256014
 B    0.000000    5.537586    0.000000
 B    0.000000    5.537586    2.512028
 N    5.388151    1.443787    0.000000
 N    5.388151    1.443787    2.512028
 N    4.425488    3.395839    1.256014
 N    2.789075    4.830911    0.000000
 N    2.789075    4.830911    2.512028
 N    0.728070    5.530521    1.256014
 N    5.530521   -0.728067   -1.256014
 N    5.530521   -0.728067    1.256014
 N    5.530521   -0.728067    3.768042
 N    4.425488    3.395839   -1.256014
 N    4.425488    3.395839    3.768042
 N   -1.443785    5.388151    0.000000
 N    0.728070    5.530521   -1.256014
 N   -1.443785    5.388151    2.512028
 N    0.728070    5.530521    3.768042
 B    5.116056    2.119151   -1.256014
 B    5.116056    2.119151    3.768042
 B    2.119126    5.116066   -1.256014
 B    2.119126    5.116066    3.768042
 B    5.116066   -2.119125   -1.256014
 B    5.537586   -0.000000   -2.512028
 B    5.116066   -2.119125    1.256014
 B    5.116066   -2.119125    3.768042
 B    5.537586    0.000000    5.024056
 B    3.915650    3.915670   -2.512028
 B    3.915650    3.915670    5.024056
 B   -2.119151    5.116056   -1.256014
 B   -2.119151    5.116056    1.256014
 B    0.000000    5.537586   -2.512028
 B   -2.119151    5.116056    3.768042
 B    0.000000    5.537586    5.024056
 N    5.388151    1.443787   -2.512028
 N    5.388151    1.443787    5.024056
 N    2.789075    4.830911   -2.512028
 N    2.789075    4.830911    5.024056
 N    4.830911   -2.789075   -2.512028
 N    4.830911   -2.789075    0.000000
 N    5.530521   -0.728067   -3.768042
 N    4.830911   -2.789075    2.512028
 N    4.830911   -2.789075    5.024056
 N    5.530521   -0.728067    6.280070
 N    4.425488    3.395839   -3.768042
 N    4.425488    3.395839    6.280070
 N   -1.443785    5.388151   -2.512028
 N   -3.395839    4.425488   -1.256014
 N   -3.395839    4.425488    1.256014
 N    0.728070    5.530521   -3.768042
 N   -1.443785    5.388151    5.024056
 N   -3.395839    4.425488    3.768042
 N    0.728070    5.530521    6.280070
 B    5.116056    2.119151   -3.768042
 B    5.116056    2.119151    6.280070
 B    2.119126    5.116066   -3.768042
 B    2.119126    5.116066    6.280070
 B    3.915670   -3.915652   -2.512028
 B    5.116066   -2.119125   -3.768042
 B    3.915670   -3.915652    0.000000
 B    5.537586   -0.000000   -5.024056
 B    3.915670   -3.915652    2.512028
 B    3.915670   -3.915652    5.024056
 B    5.116066   -2.119125    6.280070
 B    5.537586    0.000000    7.536085
 B    3.915650    3.915670   -5.024056
 B    3.915650    3.915670    7.536085
 B   -2.119151    5.116056   -3.768042
 B   -3.915673    3.915650   -2.512028
 B   -3.915673    3.915650    0.000000
 B   -3.915673    3.915650    2.512028
 B    0.000000    5.537586   -5.024056
 B   -2.119151    5.116056    6.280070
 B   -3.915673    3.915650    5.024056
 B    0.000000    5.537586    7.536085
 N    5.388151    1.443787   -5.024056
 N    5.388151    1.443787    7.536085
 N    2.789075    4.830911   -5.024056
 N    2.789075    4.830911    7.536085
 N    3.395839   -4.425487   -3.768042
 N    3.395839   -4.425487   -1.256014
 N    4.830911   -2.789075   -5.024056
 N    3.395839   -4.425487    1.256014
 N    5.530521   -0.728067   -6.280070
 N    3.395839   -4.425487    3.768042
 N    3.395839   -4.425487    6.280070
 N    4.830911   -2.789075    7.536085
 N    5.530521   -0.728067    8.792099
 N    4.425488    3.395839   -6.280070
 N    4.425488    3.395839    8.792099
 N   -1.443785    5.388151   -5.024056
 N   -3.395839    4.425488   -3.768042
 N   -4.830911    2.789075   -2.512028
 N   -4.830911    2.789075    0.000000
 N   -4.830911    2.789075    2.512028
 N    0.728070    5.530521   -6.280070
 N   -1.443785    5.388151    7.536085
 N   -3.395839    4.425488    6.280070
 N   -4.830911    2.789075    5.024056
 N    0.728070    5.530521    8.792099
 B    5.116056    2.119151   -6.280070
 B    5.116056    2.119151    8.792099
 B    2.119126    5.116066   -6.280070
 B    2.119126    5.116066    8.792099
 B    2.119151   -5.116058   -3.768042
 B    3.915670   -3.915652   -5.024056
 B    2.119151   -5.116058   -1.256014
 B    5.116066   -2.119125   -6.280070
 B    2.119151   -5.116058    1.256014
 B    5.537586   -0.000000   -7.536085
 B    2.119151   -5.116058    3.768042
 B    2.119151   -5.116058    6.280070
 B    3.915670   -3.915652    7.536085
 B    5.116066   -2.119125    8.792099
 B    5.537586    0.000000   10.048113
 B    3.915650    3.915670   -7.536085
 B    3.915650    3.915670   10.048113
 B   -2.119151    5.116056   -6.280070
 B   -3.915673    3.915650   -5.024056
 B   -5.116067    2.119126   -3.768042
 B   -5.116067    2.119126   -1.256014
 B   -5.116067    2.119126    1.256014
 B   -5.116067    2.119126    3.768042
 B   -0.000000    5.537586   -7.536085
 B   -2.119151    5.116056    8.792099
 B   -3.915673    3.915650    7.536085
 B   -5.116067    2.119126    6.280070
 B    0.000000    5.537586   10.048113
 N    5.388151    1.443787   -7.536085
 N    5.388151    1.443787   10.048113
 N    2.789075    4.830911   -7.536085
 N    2.789075    4.830911   10.048113
 N    1.443787   -5.388153   -5.024056
 N    1.443787   -5.388153   -2.512028
 N    3.395839   -4.425487   -6.280070
 N    1.443787   -5.388153    0.000000
 N    4.830911   -2.789075   -7.536085
 N    1.443787   -5.388153    2.512028
 N    5.530521   -0.728067   -8.792099
 N    1.443787   -5.388153    5.024056
 N    1.443787   -5.388153    7.536085
 N    3.395839   -4.425487    8.792099
 N    4.830911   -2.789075   10.048113
 N    5.530521   -0.728067   11.304127
 N    4.425488    3.395839   -8.792099
 N    4.425488    3.395839   11.304127
 N   -1.443785    5.388151   -7.536085
 N   -3.395839    4.425488   -6.280070
 N   -4.830911    2.789075   -5.024056
 N   -5.530521    0.728070   -3.768042
 N   -5.530521    0.728070   -1.256014
 N   -5.530521    0.728070    1.256014
 N   -5.530521    0.728070    3.768042
 N    0.728070    5.530521   -8.792099
 N   -1.443785    5.388151   10.048113
 N   -3.395839    4.425488    8.792099
 N   -4.830911    2.789075    7.536085
 N   -5.530521    0.728070    6.280070
 N    0.728070    5.530521   11.304127
 B    5.116056    2.119151   -8.792099
 B    5.116056    2.119151   11.304127
 B    2.119126    5.116066   -8.792099
 B    2.119126    5.116066   11.304127
 B   -0.000000   -5.537588   -5.024056
 B    2.119151   -5.116058   -6.280070
 B   -0.000000   -5.537588   -2.512028
 B    3.915670   -3.915652   -7.536085
 B   -0.000000   -5.537588    0.000000
 B    5.116066   -2.119125   -8.792099
 B   -0.000000   -5.537588    2.512028
 B   -0.000000   -5.537588    5.024056
 B    0.000000   -5.537588    7.536085
 B    2.119151   -5.116058    8.792099
 B    3.915670   -3.915652   10.048113
 B    5.116066   -2.119125   11.304127
 B   -2.119151    5.116056   -8.792099
 B   -3.915673    3.915650   -7.536085
 B   -5.116067    2.119126   -6.280070
 B   -5.537588   -0.000000   -5.024056
 B   -5.537588   -0.000000   -2.512028
 B   -5.537588    0.000000    0.000000
 B   -5.537588    0.000000    2.512028
 B   -5.537588    0.000000    5.024056
 B   -2.119151    5.116056   11.304127
 B   -3.915673    3.915650   10.048113
 B   -5.116067    2.119126    8.792099
 B   -5.537588    0.000000    7.536085
 N   -0.728067   -5.530521   -6.280070
 N   -0.728067   -5.530521   -3.768042
 N    1.443787   -5.388153   -7.536085
 N   -0.728067   -5.530521   -1.256014
 N    3.395839   -4.425487   -8.792099
 N   -0.728067   -5.530521    1.256014
 N   -0.728067   -5.530521    3.768042
 N   -0.728067   -5.530521    6.280070
 N   -0.728067   -5.530521    8.792099
 N    1.443787   -5.388153   10.048113
 N    3.395839   -4.425487   11.304127
 N   -3.395839    4.425488   -8.792099
 N   -4.830911    2.789075   -7.536085
 N   -5.530521    0.728070   -6.280070
 N   -5.388153   -1.443785   -5.024056
 N   -5.388153   -1.443785   -2.512028
 N   -5.388153   -1.443785    0.000000
 N   -5.388153   -1.443785    2.512028
 N   -5.388153   -1.443785    5.024056
 N   -3.395839    4.425488   11.304127
 N   -4.830911    2.789075   10.048113
 N   -5.530521    0.728070    8.792099
 N   -5.388153   -1.443785    7.536085
 B   -2.119125   -5.116067   -6.280070
 B   -0.000000   -5.537588   -7.536085
 B   -2.119125   -5.116067   -3.768042
 B    2.119151   -5.116058   -8.792099
 B   -2.119125   -5.116067   -1.256014
 B   -2.119125   -5.116067    1.256014
 B   -2.119125   -5.116067    3.768042
 B   -2.119125   -5.116067    6.280070
 B   -2.119125   -5.116067    8.792099
 B    0.000000   -5.537588   10.048113
 B    2.119151   -5.116058   11.304127
 B   -5.116067    2.119126   -8.792099
 B   -5.537588   -0.000000   -7.536085
 B   -5.116058   -2.119151   -6.280070
 B   -5.116058   -2.119151   -3.768042
 B   -5.116058   -2.119151   -1.256014
 B   -5.116058   -2.119151    1.256014
 B   -5.116058   -2.119151    3.768042
 B   -5.116058   -2.119151    6.280070
 B   -5.116067    2.119126   11.304127
 B   -5.537588    0.000000   10.048113
 B   -5.116058   -2.119151    8.792099
 N   -2.789075   -4.830911   -7.536085
 N   -2.789075   -4.830911   -5.024056
 N   -0.728067   -5.530521   -8.792099
 N   -2.789075   -4.830911   -2.512028
 N   -2.789075   -4.830911    0.000000
 N   -2.789075   -4.830911    2.512028
 N   -2.789075   -4.830911    5.024056
 N   -2.789075   -4.830911    7.536085
 N   -2.789075   -4.830911   10.048113
 N   -0.728067   -5.530521   11.304127
 N   -5.530521    0.728070   -8.792099
 N   -5.388153   -1.443785   -7.536085
 N   -4.425487   -3.395839   -6.280070
 N   -4.425487   -3.395839   -3.768042
 N   -4.425487   -3.395839   -1.256014
 N   -4.425487   -3.395839    1.256014
 N   -4.425487   -3.395839    3.768042
 N   -4.425487   -3.395839    6.280070
 N   -5.530521    0.728070   11.304127
 N   -5.388153   -1.443785   10.048113
 N   -4.425487   -3.395839    8.792099
 B   -3.915652   -3.915673   -7.536085
 B   -2.119125   -5.116067   -8.792099
 B   -3.915652   -3.915673   -5.024056
 B   -3.915652   -3.915673   -2.512028
 B   -3.915652   -3.915673    0.000000
 B   -3.915652   -3.915673    2.512028
 B   -3.915652   -3.915673    5.024056
 B   -3.915652   -3.915673    7.536085
 B   -3.915652   -3.915673   10.048113
 B   -2.119125   -5.116067   11.304127
 B   -5.116058   -2.119151   -8.792099
 B   -5.116058   -2.119151   11.304127
 N   -4.425487   -3.395839   -8.792099
 N   -4.425487   -3.395839   11.304127
