19
Sheet of BN2                                   
B    4.255584    0.000000   1.791647
B    4.255584    2.551112   1.791647
B    0.834101    1.275556   1.791647
N    3.467874    1.275556   1.791864
N    2.180728    1.275556   1.789015
N    0.046388    0.000000   1.791864
N    0.046388    2.551112   1.791864
N   -1.240758    0.000000   1.789015
N   -1.240758    2.551112   1.789015
N    3.467874   -1.275556   1.791864
N    5.602214    0.000000   1.789015
N    3.467874    3.826668   1.791864
N    5.602214    2.551112   1.789015
B    0.834101   -1.275556   1.791647
B    0.834101    3.826668   1.791647
B   -2.587388    0.000000   1.791647
B   -2.587388    2.551112   1.791647
N    2.180728   -1.275556   1.789015
N    2.180728    3.826668   1.789015
