140
BN supercell Au 
 B    5.018728   13.063861    1.068997
 B    6.268756   10.886223    0.917718
 B    7.522538    8.705800    0.904383
 B    8.777775    6.529187    0.966741
 B   10.036811    4.355330    1.117971
 B   11.293488    2.181989    1.295044
 B   -0.009865   17.413061    1.399349
 B    1.249101   15.233460    1.356019
 B    2.503401   13.058906    1.181256
 B    3.757598   10.883270    0.927671
 B   10.043524   17.412205    1.399270
 B    6.266568    6.528193    0.815732
 B    7.524653    4.352638    0.918402
 B    8.785657    2.180954    1.135100
 B   -2.523049   17.413250    1.373908
 B   -1.263977   15.234262    1.397597
 B   -0.005016   13.056169    1.317579
 B    1.249591   10.882299    1.113260
 B    2.499636    8.708395    0.882537
 B    3.753252    6.528286    0.797399
 B    5.012037    4.350468    0.831314
 B    3.761517   15.233629    1.284639
 B    2.504323   17.411673    1.386453
 B   13.808165    2.180353    1.376443
 B   11.296066   15.232885    1.386329
 B   12.548299   13.055160    1.376479
 B   13.803783   10.879304    1.377162
 B   15.062805    8.704740    1.387634
 B   16.323061    6.530601    1.398562
 B   17.583094    4.355865    1.404866
 B   18.841743    2.180583    1.408531
 B    7.530237   17.411552    1.373003
 B    8.783081   15.233179    1.324287
 B   10.034821   13.054940    1.293649
 B    6.269050    2.176854    0.988113
 B   11.286399   10.877522    1.293698
 B   13.804040    6.529898    1.348234
 B   15.064715    4.355401    1.383951
 B   16.324780    2.179788    1.407589
 B    5.017374   17.411673    1.364777
 B    6.272320   15.234853    1.262486
 B    7.524247   13.060164    1.132481
 B    8.774461   10.879418    1.106374
 B   10.028595    8.702599    1.129150
 B   11.288797    6.528630    1.198783
 B   12.547608    4.355513    1.303756
 B   12.543853    8.703843    1.313534
 B    5.010874    8.706820    0.814798
 B   -2.515814    8.705698    1.344946
 B    2.505353    4.355926    0.972434
 B   -0.001048    4.357962    1.226157
 B   -5.035225   13.057442    1.410960
 B   -3.775966   10.880711    1.393804
 B    1.253643    2.183626    1.241563
 B   -1.257890    6.531637    1.267755
 B   -6.292268   15.235020    1.397240
 B    1.249138    6.530315    0.998783
 B    3.762728    2.179284    1.039210
 B   -5.035736   17.413591    1.340184
 B   -0.005115    8.707474    1.142984
 B   -2.518962   13.057044    1.389958
 B   -3.778090   15.235111    1.402197
 B   -1.259484   10.880367    1.308387
 N   18.842627    3.631817    1.402571
 N   17.583162    1.454546    1.413769
 N   16.323950    3.631244    1.402774
 N    6.273241   16.684708    1.339800
 N    2.508630    1.455984    1.197599
 N    7.527002   14.508066    1.241384
 N   11.299478   16.685490    1.404210
 N    8.778859   12.330664    1.181969
 N    1.253692    3.632401    1.151236
 N   10.030261   10.153485    1.186029
 N   12.552060   14.507087    1.394040
 N   13.805889   12.330787    1.388622
 N   15.063684    5.806468    1.381649
 N   17.582916    5.806873    1.402937
 N    8.786236   16.684593    1.372733
 N   10.038134   14.506053    1.343968
 N   16.322636    7.981430    1.401875
 N   11.289808   12.328518    1.332579
 N   15.062883   10.155874    1.394346
 N   12.544243   10.154207    1.337686
 N   13.802934    7.980761    1.357603
 N   11.286395    7.979806    1.223084
 N    7.528288    1.450621    1.106960
 N   12.545589    5.806058    1.292974
 N    5.011970   10.161183    0.844799
 N    6.267454    7.981181    0.812571
 N    2.497479    5.803768    0.850933
 N    7.524432    5.802257    0.866955
 N    8.782592    3.627031    1.024520
 N    1.241419    7.985436    0.952953
 N   10.036595    1.456370    1.265322
 N   -0.003821   10.156833    1.197049
 N   -1.266030   16.686733    1.401953
 N   -0.006489   14.507077    1.369242
 N   -1.260944   12.331022    1.347096
 N    1.250881   12.330882    1.215049
 N    2.498079   10.162767    0.920819
 N   -2.520498   14.508842    1.403551
 N    3.752938    7.982657    0.790766
 N    5.010802    5.801835    0.774718
 N   -3.779043   16.687628    1.379496
 N    6.270509    3.623352    0.863160
 N    3.757600    3.624108    0.886028
 N    3.758068   12.337447    1.033389
 N    2.505530   14.506527    1.286324
 N    5.017433    1.443858    1.003997
 N   13.805897    3.631320    1.361456
 N   -1.257343    7.982264    1.266820
 N   15.066381    1.454636    1.401205
 N   -2.516617   10.156156    1.357916
 N    3.760922   16.683941    1.355395
 N    5.016616   14.508408    1.206609
 N   -3.776682   12.332136    1.403340
 N   -0.002961    5.807231    1.166034
 N    6.271097   12.339466    0.975126
 N   -5.034910   14.509431    1.408933
 N    8.779273    7.980452    0.958587
 N   10.035531    5.804369    1.069146
 N   -6.291264   16.687405    1.368240
 N   11.290064    3.631960    1.248416
 N   12.550103    1.455943    1.362608
 N    1.247612   16.685175    1.393292
 N    7.523845   10.158666    0.938675
Au    4.158844    2.320305    3.958296
Au    2.798274    4.682904    3.926556
Au    1.536201    7.024522    3.923349
Au    6.850002    2.429229    3.966516
Au    5.531477    4.738753    3.976643
Au    4.256315    7.094054    3.954253
Au    2.798958    9.420976    3.982967
Au    8.373266    4.685264    4.061510
Au    6.930605    7.017532    3.999607
Au    5.650249    9.371179    4.001579
Au    4.323056   11.674793    3.999197
Au    9.644571    7.074380    4.117803
Au    8.381581    9.417547    4.092543
Au    7.015132   11.780240    4.077670
